*SPEF "ieee 1481-1999"
*DESIGN "user_project_wrapper"
*DATE "11:11:11 Fri 11 11, 1111"
*VENDOR "OpenRCX"
*PROGRAM "Parallel Extraction"
*VERSION "1.0"
*DESIGN_FLOW "NAME_SCOPE LOCAL" "PIN_CAP NONE"
*DIVIDER /
*DELIMITER :
*BUS_DELIMITER []
*T_UNIT 1 NS
*C_UNIT 1 PF
*R_UNIT 1 OHM
*L_UNIT 1 HENRY

*NAME_MAP
*1 io_in[0]
*2 io_in[10]
*3 io_in[11]
*4 io_in[12]
*5 io_in[13]
*6 io_in[14]
*7 io_in[15]
*8 io_in[16]
*9 io_in[17]
*10 io_in[18]
*11 io_in[19]
*12 io_in[1]
*13 io_in[20]
*14 io_in[21]
*15 io_in[22]
*16 io_in[23]
*17 io_in[24]
*18 io_in[25]
*19 io_in[26]
*20 io_in[27]
*21 io_in[28]
*22 io_in[29]
*23 io_in[2]
*24 io_in[30]
*25 io_in[31]
*26 io_in[32]
*27 io_in[33]
*28 io_in[34]
*29 io_in[35]
*30 io_in[36]
*31 io_in[37]
*32 io_in[3]
*33 io_in[4]
*34 io_in[5]
*35 io_in[6]
*36 io_in[7]
*37 io_in[8]
*38 io_in[9]
*39 io_oeb[0]
*40 io_oeb[10]
*41 io_oeb[11]
*42 io_oeb[12]
*43 io_oeb[13]
*44 io_oeb[14]
*45 io_oeb[15]
*46 io_oeb[16]
*47 io_oeb[17]
*48 io_oeb[18]
*49 io_oeb[19]
*50 io_oeb[1]
*51 io_oeb[20]
*52 io_oeb[21]
*53 io_oeb[22]
*54 io_oeb[23]
*55 io_oeb[24]
*56 io_oeb[25]
*57 io_oeb[26]
*58 io_oeb[27]
*59 io_oeb[28]
*60 io_oeb[29]
*61 io_oeb[2]
*62 io_oeb[30]
*63 io_oeb[31]
*64 io_oeb[32]
*65 io_oeb[33]
*66 io_oeb[34]
*67 io_oeb[35]
*68 io_oeb[36]
*69 io_oeb[37]
*70 io_oeb[3]
*71 io_oeb[4]
*72 io_oeb[5]
*73 io_oeb[6]
*74 io_oeb[7]
*75 io_oeb[8]
*76 io_oeb[9]
*77 io_out[0]
*78 io_out[10]
*79 io_out[11]
*80 io_out[12]
*81 io_out[13]
*82 io_out[14]
*83 io_out[15]
*84 io_out[16]
*85 io_out[17]
*86 io_out[18]
*87 io_out[19]
*88 io_out[1]
*89 io_out[20]
*90 io_out[21]
*91 io_out[22]
*92 io_out[23]
*93 io_out[24]
*94 io_out[25]
*95 io_out[26]
*96 io_out[27]
*97 io_out[28]
*98 io_out[29]
*99 io_out[2]
*100 io_out[30]
*101 io_out[31]
*102 io_out[32]
*103 io_out[33]
*104 io_out[34]
*105 io_out[35]
*106 io_out[36]
*107 io_out[37]
*108 io_out[3]
*109 io_out[4]
*110 io_out[5]
*111 io_out[6]
*112 io_out[7]
*113 io_out[8]
*114 io_out[9]
*115 la_data_in[0]
*116 la_data_in[10]
*117 la_data_in[11]
*118 la_data_in[12]
*119 la_data_in[13]
*120 la_data_in[14]
*121 la_data_in[15]
*122 la_data_in[16]
*123 la_data_in[17]
*124 la_data_in[18]
*125 la_data_in[19]
*126 la_data_in[1]
*127 la_data_in[20]
*128 la_data_in[21]
*129 la_data_in[22]
*130 la_data_in[23]
*131 la_data_in[24]
*132 la_data_in[25]
*133 la_data_in[26]
*134 la_data_in[27]
*135 la_data_in[28]
*136 la_data_in[29]
*137 la_data_in[2]
*138 la_data_in[30]
*139 la_data_in[31]
*140 la_data_in[32]
*141 la_data_in[33]
*142 la_data_in[34]
*143 la_data_in[35]
*144 la_data_in[36]
*145 la_data_in[37]
*146 la_data_in[38]
*147 la_data_in[39]
*148 la_data_in[3]
*149 la_data_in[40]
*150 la_data_in[41]
*151 la_data_in[42]
*152 la_data_in[43]
*153 la_data_in[44]
*154 la_data_in[45]
*155 la_data_in[46]
*156 la_data_in[47]
*157 la_data_in[48]
*158 la_data_in[49]
*159 la_data_in[4]
*160 la_data_in[50]
*161 la_data_in[51]
*162 la_data_in[52]
*163 la_data_in[53]
*164 la_data_in[54]
*165 la_data_in[55]
*166 la_data_in[56]
*167 la_data_in[57]
*168 la_data_in[58]
*169 la_data_in[59]
*170 la_data_in[5]
*171 la_data_in[60]
*172 la_data_in[61]
*173 la_data_in[62]
*174 la_data_in[63]
*175 la_data_in[6]
*176 la_data_in[7]
*177 la_data_in[8]
*178 la_data_in[9]
*179 la_data_out[0]
*180 la_data_out[10]
*181 la_data_out[11]
*182 la_data_out[12]
*183 la_data_out[13]
*184 la_data_out[14]
*185 la_data_out[15]
*186 la_data_out[16]
*187 la_data_out[17]
*188 la_data_out[18]
*189 la_data_out[19]
*190 la_data_out[1]
*191 la_data_out[20]
*192 la_data_out[21]
*193 la_data_out[22]
*194 la_data_out[23]
*195 la_data_out[24]
*196 la_data_out[25]
*197 la_data_out[26]
*198 la_data_out[27]
*199 la_data_out[28]
*200 la_data_out[29]
*201 la_data_out[2]
*202 la_data_out[30]
*203 la_data_out[31]
*204 la_data_out[32]
*205 la_data_out[33]
*206 la_data_out[34]
*207 la_data_out[35]
*208 la_data_out[36]
*209 la_data_out[37]
*210 la_data_out[38]
*211 la_data_out[39]
*212 la_data_out[3]
*213 la_data_out[40]
*214 la_data_out[41]
*215 la_data_out[42]
*216 la_data_out[43]
*217 la_data_out[44]
*218 la_data_out[45]
*219 la_data_out[46]
*220 la_data_out[47]
*221 la_data_out[48]
*222 la_data_out[49]
*223 la_data_out[4]
*224 la_data_out[50]
*225 la_data_out[51]
*226 la_data_out[52]
*227 la_data_out[53]
*228 la_data_out[54]
*229 la_data_out[55]
*230 la_data_out[56]
*231 la_data_out[57]
*232 la_data_out[58]
*233 la_data_out[59]
*234 la_data_out[5]
*235 la_data_out[60]
*236 la_data_out[61]
*237 la_data_out[62]
*238 la_data_out[63]
*239 la_data_out[6]
*240 la_data_out[7]
*241 la_data_out[8]
*242 la_data_out[9]
*243 la_oenb[0]
*244 la_oenb[10]
*245 la_oenb[11]
*246 la_oenb[12]
*247 la_oenb[13]
*248 la_oenb[14]
*249 la_oenb[15]
*250 la_oenb[16]
*251 la_oenb[17]
*252 la_oenb[18]
*253 la_oenb[19]
*254 la_oenb[1]
*255 la_oenb[20]
*256 la_oenb[21]
*257 la_oenb[22]
*258 la_oenb[23]
*259 la_oenb[24]
*260 la_oenb[25]
*261 la_oenb[26]
*262 la_oenb[27]
*263 la_oenb[28]
*264 la_oenb[29]
*265 la_oenb[2]
*266 la_oenb[30]
*267 la_oenb[31]
*268 la_oenb[32]
*269 la_oenb[33]
*270 la_oenb[34]
*271 la_oenb[35]
*272 la_oenb[36]
*273 la_oenb[37]
*274 la_oenb[38]
*275 la_oenb[39]
*276 la_oenb[3]
*277 la_oenb[40]
*278 la_oenb[41]
*279 la_oenb[42]
*280 la_oenb[43]
*281 la_oenb[44]
*282 la_oenb[45]
*283 la_oenb[46]
*284 la_oenb[47]
*285 la_oenb[48]
*286 la_oenb[49]
*287 la_oenb[4]
*288 la_oenb[50]
*289 la_oenb[51]
*290 la_oenb[52]
*291 la_oenb[53]
*292 la_oenb[54]
*293 la_oenb[55]
*294 la_oenb[56]
*295 la_oenb[57]
*296 la_oenb[58]
*297 la_oenb[59]
*298 la_oenb[5]
*299 la_oenb[60]
*300 la_oenb[61]
*301 la_oenb[62]
*302 la_oenb[63]
*303 la_oenb[6]
*304 la_oenb[7]
*305 la_oenb[8]
*306 la_oenb[9]
*307 user_clock2
*308 user_irq[0]
*309 user_irq[1]
*310 user_irq[2]
*313 wb_clk_i
*314 wb_rst_i
*315 wbs_ack_o
*316 wbs_adr_i[0]
*317 wbs_adr_i[10]
*318 wbs_adr_i[11]
*319 wbs_adr_i[12]
*320 wbs_adr_i[13]
*321 wbs_adr_i[14]
*322 wbs_adr_i[15]
*323 wbs_adr_i[16]
*324 wbs_adr_i[17]
*325 wbs_adr_i[18]
*326 wbs_adr_i[19]
*327 wbs_adr_i[1]
*328 wbs_adr_i[20]
*329 wbs_adr_i[21]
*330 wbs_adr_i[22]
*331 wbs_adr_i[23]
*332 wbs_adr_i[24]
*333 wbs_adr_i[25]
*334 wbs_adr_i[26]
*335 wbs_adr_i[27]
*336 wbs_adr_i[28]
*337 wbs_adr_i[29]
*338 wbs_adr_i[2]
*339 wbs_adr_i[30]
*340 wbs_adr_i[31]
*341 wbs_adr_i[3]
*342 wbs_adr_i[4]
*343 wbs_adr_i[5]
*344 wbs_adr_i[6]
*345 wbs_adr_i[7]
*346 wbs_adr_i[8]
*347 wbs_adr_i[9]
*348 wbs_cyc_i
*349 wbs_dat_i[0]
*350 wbs_dat_i[10]
*351 wbs_dat_i[11]
*352 wbs_dat_i[12]
*353 wbs_dat_i[13]
*354 wbs_dat_i[14]
*355 wbs_dat_i[15]
*356 wbs_dat_i[16]
*357 wbs_dat_i[17]
*358 wbs_dat_i[18]
*359 wbs_dat_i[19]
*360 wbs_dat_i[1]
*361 wbs_dat_i[20]
*362 wbs_dat_i[21]
*363 wbs_dat_i[22]
*364 wbs_dat_i[23]
*365 wbs_dat_i[24]
*366 wbs_dat_i[25]
*367 wbs_dat_i[26]
*368 wbs_dat_i[27]
*369 wbs_dat_i[28]
*370 wbs_dat_i[29]
*371 wbs_dat_i[2]
*372 wbs_dat_i[30]
*373 wbs_dat_i[31]
*374 wbs_dat_i[3]
*375 wbs_dat_i[4]
*376 wbs_dat_i[5]
*377 wbs_dat_i[6]
*378 wbs_dat_i[7]
*379 wbs_dat_i[8]
*380 wbs_dat_i[9]
*381 wbs_dat_o[0]
*382 wbs_dat_o[10]
*383 wbs_dat_o[11]
*384 wbs_dat_o[12]
*385 wbs_dat_o[13]
*386 wbs_dat_o[14]
*387 wbs_dat_o[15]
*388 wbs_dat_o[16]
*389 wbs_dat_o[17]
*390 wbs_dat_o[18]
*391 wbs_dat_o[19]
*392 wbs_dat_o[1]
*393 wbs_dat_o[20]
*394 wbs_dat_o[21]
*395 wbs_dat_o[22]
*396 wbs_dat_o[23]
*397 wbs_dat_o[24]
*398 wbs_dat_o[25]
*399 wbs_dat_o[26]
*400 wbs_dat_o[27]
*401 wbs_dat_o[28]
*402 wbs_dat_o[29]
*403 wbs_dat_o[2]
*404 wbs_dat_o[30]
*405 wbs_dat_o[31]
*406 wbs_dat_o[3]
*407 wbs_dat_o[4]
*408 wbs_dat_o[5]
*409 wbs_dat_o[6]
*410 wbs_dat_o[7]
*411 wbs_dat_o[8]
*412 wbs_dat_o[9]
*413 wbs_sel_i[0]
*414 wbs_sel_i[1]
*415 wbs_sel_i[2]
*416 wbs_sel_i[3]
*417 wbs_stb_i
*418 wbs_we_i
*419 mprj

*PORTS
io_in[0] I
io_in[10] I
io_in[11] I
io_in[12] I
io_in[13] I
io_in[14] I
io_in[15] I
io_in[16] I
io_in[17] I
io_in[18] I
io_in[19] I
io_in[1] I
io_in[20] I
io_in[21] I
io_in[22] I
io_in[23] I
io_in[24] I
io_in[25] I
io_in[26] I
io_in[27] I
io_in[28] I
io_in[29] I
io_in[2] I
io_in[30] I
io_in[31] I
io_in[32] I
io_in[33] I
io_in[34] I
io_in[35] I
io_in[36] I
io_in[37] I
io_in[3] I
io_in[4] I
io_in[5] I
io_in[6] I
io_in[7] I
io_in[8] I
io_in[9] I
io_oeb[0] O
io_oeb[10] O
io_oeb[11] O
io_oeb[12] O
io_oeb[13] O
io_oeb[14] O
io_oeb[15] O
io_oeb[16] O
io_oeb[17] O
io_oeb[18] O
io_oeb[19] O
io_oeb[1] O
io_oeb[20] O
io_oeb[21] O
io_oeb[22] O
io_oeb[23] O
io_oeb[24] O
io_oeb[25] O
io_oeb[26] O
io_oeb[27] O
io_oeb[28] O
io_oeb[29] O
io_oeb[2] O
io_oeb[30] O
io_oeb[31] O
io_oeb[32] O
io_oeb[33] O
io_oeb[34] O
io_oeb[35] O
io_oeb[36] O
io_oeb[37] O
io_oeb[3] O
io_oeb[4] O
io_oeb[5] O
io_oeb[6] O
io_oeb[7] O
io_oeb[8] O
io_oeb[9] O
io_out[0] O
io_out[10] O
io_out[11] O
io_out[12] O
io_out[13] O
io_out[14] O
io_out[15] O
io_out[16] O
io_out[17] O
io_out[18] O
io_out[19] O
io_out[1] O
io_out[20] O
io_out[21] O
io_out[22] O
io_out[23] O
io_out[24] O
io_out[25] O
io_out[26] O
io_out[27] O
io_out[28] O
io_out[29] O
io_out[2] O
io_out[30] O
io_out[31] O
io_out[32] O
io_out[33] O
io_out[34] O
io_out[35] O
io_out[36] O
io_out[37] O
io_out[3] O
io_out[4] O
io_out[5] O
io_out[6] O
io_out[7] O
io_out[8] O
io_out[9] O
la_data_in[0] I
la_data_in[10] I
la_data_in[11] I
la_data_in[12] I
la_data_in[13] I
la_data_in[14] I
la_data_in[15] I
la_data_in[16] I
la_data_in[17] I
la_data_in[18] I
la_data_in[19] I
la_data_in[1] I
la_data_in[20] I
la_data_in[21] I
la_data_in[22] I
la_data_in[23] I
la_data_in[24] I
la_data_in[25] I
la_data_in[26] I
la_data_in[27] I
la_data_in[28] I
la_data_in[29] I
la_data_in[2] I
la_data_in[30] I
la_data_in[31] I
la_data_in[32] I
la_data_in[33] I
la_data_in[34] I
la_data_in[35] I
la_data_in[36] I
la_data_in[37] I
la_data_in[38] I
la_data_in[39] I
la_data_in[3] I
la_data_in[40] I
la_data_in[41] I
la_data_in[42] I
la_data_in[43] I
la_data_in[44] I
la_data_in[45] I
la_data_in[46] I
la_data_in[47] I
la_data_in[48] I
la_data_in[49] I
la_data_in[4] I
la_data_in[50] I
la_data_in[51] I
la_data_in[52] I
la_data_in[53] I
la_data_in[54] I
la_data_in[55] I
la_data_in[56] I
la_data_in[57] I
la_data_in[58] I
la_data_in[59] I
la_data_in[5] I
la_data_in[60] I
la_data_in[61] I
la_data_in[62] I
la_data_in[63] I
la_data_in[6] I
la_data_in[7] I
la_data_in[8] I
la_data_in[9] I
la_data_out[0] O
la_data_out[10] O
la_data_out[11] O
la_data_out[12] O
la_data_out[13] O
la_data_out[14] O
la_data_out[15] O
la_data_out[16] O
la_data_out[17] O
la_data_out[18] O
la_data_out[19] O
la_data_out[1] O
la_data_out[20] O
la_data_out[21] O
la_data_out[22] O
la_data_out[23] O
la_data_out[24] O
la_data_out[25] O
la_data_out[26] O
la_data_out[27] O
la_data_out[28] O
la_data_out[29] O
la_data_out[2] O
la_data_out[30] O
la_data_out[31] O
la_data_out[32] O
la_data_out[33] O
la_data_out[34] O
la_data_out[35] O
la_data_out[36] O
la_data_out[37] O
la_data_out[38] O
la_data_out[39] O
la_data_out[3] O
la_data_out[40] O
la_data_out[41] O
la_data_out[42] O
la_data_out[43] O
la_data_out[44] O
la_data_out[45] O
la_data_out[46] O
la_data_out[47] O
la_data_out[48] O
la_data_out[49] O
la_data_out[4] O
la_data_out[50] O
la_data_out[51] O
la_data_out[52] O
la_data_out[53] O
la_data_out[54] O
la_data_out[55] O
la_data_out[56] O
la_data_out[57] O
la_data_out[58] O
la_data_out[59] O
la_data_out[5] O
la_data_out[60] O
la_data_out[61] O
la_data_out[62] O
la_data_out[63] O
la_data_out[6] O
la_data_out[7] O
la_data_out[8] O
la_data_out[9] O
la_oenb[0] I
la_oenb[10] I
la_oenb[11] I
la_oenb[12] I
la_oenb[13] I
la_oenb[14] I
la_oenb[15] I
la_oenb[16] I
la_oenb[17] I
la_oenb[18] I
la_oenb[19] I
la_oenb[1] I
la_oenb[20] I
la_oenb[21] I
la_oenb[22] I
la_oenb[23] I
la_oenb[24] I
la_oenb[25] I
la_oenb[26] I
la_oenb[27] I
la_oenb[28] I
la_oenb[29] I
la_oenb[2] I
la_oenb[30] I
la_oenb[31] I
la_oenb[32] I
la_oenb[33] I
la_oenb[34] I
la_oenb[35] I
la_oenb[36] I
la_oenb[37] I
la_oenb[38] I
la_oenb[39] I
la_oenb[3] I
la_oenb[40] I
la_oenb[41] I
la_oenb[42] I
la_oenb[43] I
la_oenb[44] I
la_oenb[45] I
la_oenb[46] I
la_oenb[47] I
la_oenb[48] I
la_oenb[49] I
la_oenb[4] I
la_oenb[50] I
la_oenb[51] I
la_oenb[52] I
la_oenb[53] I
la_oenb[54] I
la_oenb[55] I
la_oenb[56] I
la_oenb[57] I
la_oenb[58] I
la_oenb[59] I
la_oenb[5] I
la_oenb[60] I
la_oenb[61] I
la_oenb[62] I
la_oenb[63] I
la_oenb[6] I
la_oenb[7] I
la_oenb[8] I
la_oenb[9] I
user_clock2 I
user_irq[0] O
user_irq[1] O
user_irq[2] O
wb_clk_i I
wb_rst_i I
wbs_ack_o O
wbs_adr_i[0] I
wbs_adr_i[10] I
wbs_adr_i[11] I
wbs_adr_i[12] I
wbs_adr_i[13] I
wbs_adr_i[14] I
wbs_adr_i[15] I
wbs_adr_i[16] I
wbs_adr_i[17] I
wbs_adr_i[18] I
wbs_adr_i[19] I
wbs_adr_i[1] I
wbs_adr_i[20] I
wbs_adr_i[21] I
wbs_adr_i[22] I
wbs_adr_i[23] I
wbs_adr_i[24] I
wbs_adr_i[25] I
wbs_adr_i[26] I
wbs_adr_i[27] I
wbs_adr_i[28] I
wbs_adr_i[29] I
wbs_adr_i[2] I
wbs_adr_i[30] I
wbs_adr_i[31] I
wbs_adr_i[3] I
wbs_adr_i[4] I
wbs_adr_i[5] I
wbs_adr_i[6] I
wbs_adr_i[7] I
wbs_adr_i[8] I
wbs_adr_i[9] I
wbs_cyc_i I
wbs_dat_i[0] I
wbs_dat_i[10] I
wbs_dat_i[11] I
wbs_dat_i[12] I
wbs_dat_i[13] I
wbs_dat_i[14] I
wbs_dat_i[15] I
wbs_dat_i[16] I
wbs_dat_i[17] I
wbs_dat_i[18] I
wbs_dat_i[19] I
wbs_dat_i[1] I
wbs_dat_i[20] I
wbs_dat_i[21] I
wbs_dat_i[22] I
wbs_dat_i[23] I
wbs_dat_i[24] I
wbs_dat_i[25] I
wbs_dat_i[26] I
wbs_dat_i[27] I
wbs_dat_i[28] I
wbs_dat_i[29] I
wbs_dat_i[2] I
wbs_dat_i[30] I
wbs_dat_i[31] I
wbs_dat_i[3] I
wbs_dat_i[4] I
wbs_dat_i[5] I
wbs_dat_i[6] I
wbs_dat_i[7] I
wbs_dat_i[8] I
wbs_dat_i[9] I
wbs_dat_o[0] O
wbs_dat_o[10] O
wbs_dat_o[11] O
wbs_dat_o[12] O
wbs_dat_o[13] O
wbs_dat_o[14] O
wbs_dat_o[15] O
wbs_dat_o[16] O
wbs_dat_o[17] O
wbs_dat_o[18] O
wbs_dat_o[19] O
wbs_dat_o[1] O
wbs_dat_o[20] O
wbs_dat_o[21] O
wbs_dat_o[22] O
wbs_dat_o[23] O
wbs_dat_o[24] O
wbs_dat_o[25] O
wbs_dat_o[26] O
wbs_dat_o[27] O
wbs_dat_o[28] O
wbs_dat_o[29] O
wbs_dat_o[2] O
wbs_dat_o[30] O
wbs_dat_o[31] O
wbs_dat_o[3] O
wbs_dat_o[4] O
wbs_dat_o[5] O
wbs_dat_o[6] O
wbs_dat_o[7] O
wbs_dat_o[8] O
wbs_dat_o[9] O
wbs_sel_i[0] I
wbs_sel_i[1] I
wbs_sel_i[2] I
wbs_sel_i[3] I
wbs_stb_i I
wbs_we_i I

*D_NET *1 0.40593
*CONN
*P io_in[0] I
*I *419:io_in[0] I *D tiny_user_project
*CAP
1 io_in[0] 0.00291927
2 *419:io_in[0] 0.0016571
3 *1:14 0.0188417
4 *1:13 0.0171846
5 *1:11 0.0807014
6 *1:10 0.0836207
7 *1:14 *37:16 0.0366413
8 *1:14 *185:13 0.00128889
9 *1:14 *275:11 0.163075
*RES
1 io_in[0] *1:10 38.295 
2 *1:10 *1:11 843.93 
3 *1:11 *1:13 4.5 
4 *1:13 *1:14 298.53 
5 *1:14 *419:io_in[0] 29.61 
*END

*D_NET *2 0.2871
*CONN
*P io_in[10] I
*I *419:io_in[10] I *D tiny_user_project
*CAP
1 io_in[10] 0.0775379
2 *419:io_in[10] 0.00067642
3 *2:8 0.0195037
4 *2:7 0.0188273
5 *2:5 0.0775379
6 *419:io_in[10] *220:10 0.00248779
7 *2:5 *97:17 0
8 *2:8 *43:11 0.0635239
9 *2:8 *225:13 0.0122138
10 *2:8 *247:11 0.0147915
*RES
1 io_in[10] *2:5 845.325 
2 *2:5 *2:7 4.5 
3 *2:7 *2:8 319.05 
4 *2:8 *419:io_in[10] 24.3 
*END

*D_NET *3 0.331488
*CONN
*P io_in[11] I
*I *419:io_in[11] I *D tiny_user_project
*CAP
1 io_in[11] 0.000280649
2 *419:io_in[11] 0.00139393
3 *3:16 0.0399332
4 *3:15 0.0385393
5 *3:13 0.0777084
6 *3:11 0.077989
7 *3:16 *73:11 0.0145665
8 *3:16 *120:19 0.0810773
*RES
1 io_in[11] *3:11 2.655 
2 *3:11 *3:13 847.71 
3 *3:13 *3:15 4.5 
4 *3:15 *3:16 461.07 
5 *3:16 *419:io_in[11] 26.64 
*END

*D_NET *4 0.313291
*CONN
*P io_in[12] I
*I *419:io_in[12] I *D tiny_user_project
*CAP
1 io_in[12] 0.000215438
2 *419:io_in[12] 0.000482704
3 *4:16 0.0403423
4 *4:15 0.0398596
5 *4:13 0.0771737
6 *4:11 0.0773891
7 *419:io_in[12] *419:la_oenb[28] 0.0017832
8 *4:16 *112:11 0.0192106
9 *4:16 *135:25 0.0170011
10 *4:16 *351:17 0
11 *4:16 *385:14 0
12 *4:16 *394:11 0.0398328
*RES
1 io_in[12] *4:11 2.115 
2 *4:11 *4:13 842.31 
3 *4:13 *4:15 4.5 
4 *4:15 *4:16 467.55 
5 *4:16 *419:io_in[12] 21.24 
*END

*D_NET *5 0.345796
*CONN
*P io_in[13] I
*I *419:io_in[13] I *D tiny_user_project
*CAP
1 io_in[13] 0.000145659
2 *419:io_in[13] 0.00139017
3 *5:16 0.0468596
4 *5:15 0.0454694
5 *5:13 0.0781246
6 *5:11 0.0782703
7 *419:io_in[13] *419:io_in[31] 0.000146099
8 *419:io_in[13] *140:27 0.00412388
9 *5:16 *75:13 0.0564657
10 *5:16 *279:11 0.0348
*RES
1 io_in[13] *5:11 1.575 
2 *5:11 *5:13 853.11 
3 *5:13 *5:15 4.5 
4 *5:15 *5:16 577.53 
5 *5:16 *419:io_in[13] 34.11 
*END

*D_NET *6 0.339031
*CONN
*P io_in[14] I
*I *419:io_in[14] I *D tiny_user_project
*CAP
1 io_in[14] 0.0039856
2 *419:io_in[14] 0.00139821
3 *6:12 0.0603987
4 *6:11 0.0590005
5 *6:9 0.0743828
6 *6:7 0.0783684
7 *419:io_in[14] *103:15 0.00470413
8 *6:12 *103:15 0.00435768
9 *6:12 *292:19 0.0276805
10 *6:12 *317:19 0.0247549
*RES
1 io_in[14] *6:7 43.425 
2 *6:7 *6:9 812.88 
3 *6:9 *6:11 4.5 
4 *6:11 *6:12 653.49 
5 *6:12 *419:io_in[14] 35.01 
*END

*D_NET *7 0.247786
*CONN
*P io_in[15] I
*I *419:io_in[15] I *D tiny_user_project
*CAP
1 io_in[15] 0.00433039
2 *419:io_in[15] 0.000610372
3 *7:15 0.0115102
4 *7:14 0.0108998
5 *7:12 0.0635501
6 *7:11 0.0635501
7 *7:9 0.0409589
8 *7:7 0.0452893
9 *419:io_in[15] *335:16 0.00354368
10 *419:io_in[15] *378:18 0.00354368
11 *7:15 *68:10 0
*RES
1 io_in[15] *7:7 43.245 
2 *7:7 *7:9 409.14 
3 *7:9 *7:11 4.5 
4 *7:11 *7:12 692.73 
5 *7:12 *7:14 4.5 
6 *7:14 *7:15 105.75 
7 *7:15 *419:io_in[15] 28.1074 
*END

*D_NET *8 0.251911
*CONN
*P io_in[16] I
*I *419:io_in[16] I *D tiny_user_project
*CAP
1 io_in[16] 0.000164983
2 *419:io_in[16] 0.00175043
3 *8:19 0.00914045
4 *8:18 0.00739002
5 *8:16 0.0488456
6 *8:15 0.0488456
7 *8:13 0.0637408
8 *8:11 0.0639058
9 *8:19 *31:16 0
10 *8:19 *405:8 0.00812692
*RES
1 io_in[16] *8:11 1.935 
2 *8:11 *8:13 635.67 
3 *8:13 *8:15 4.5 
4 *8:15 *8:16 468.63 
5 *8:16 *8:18 4.5 
6 *8:18 *8:19 105.93 
7 *8:19 *419:io_in[16] 20.025 
*END

*D_NET *9 0.18611
*CONN
*P io_in[17] I
*I *419:io_in[17] I *D tiny_user_project
*CAP
1 io_in[17] 0.000291323
2 *419:io_in[17] 0.00162931
3 *9:19 0.0146886
4 *9:18 0.0130593
5 *9:16 0.0330763
6 *9:15 0.0330763
7 *9:13 0.0449987
8 *9:11 0.04529
9 *9:19 *358:19 0
*RES
1 io_in[17] *9:11 3.015 
2 *9:11 *9:13 449.37 
3 *9:13 *9:15 4.5 
4 *9:15 *9:16 360.63 
5 *9:16 *9:18 4.5 
6 *9:18 *9:19 125.91 
7 *9:19 *419:io_in[17] 20.025 
*END

*D_NET *10 0.184162
*CONN
*P io_in[18] I
*I *419:io_in[18] I *D tiny_user_project
*CAP
1 io_in[18] 0.000104982
2 *419:io_in[18] 7.18181e-05
3 *10:19 0.00549369
4 *10:18 0.00542187
5 *10:16 0.0352599
6 *10:15 0.0352599
7 *10:13 0.0512226
8 *10:11 0.0513275
*RES
1 io_in[18] *10:11 1.395 
2 *10:11 *10:13 511.47 
3 *10:13 *10:15 4.5 
4 *10:15 *10:16 344.07 
5 *10:16 *10:18 4.5 
6 *10:18 *10:19 50.49 
7 *10:19 *419:io_in[18] 9.74739 
*END

*D_NET *11 0.315008
*CONN
*P io_in[19] I
*I *419:io_in[19] I *D tiny_user_project
*CAP
1 io_in[19] 0.000224243
2 *419:io_in[19] 0.000557939
3 *11:22 0.00493517
4 *11:21 0.00437723
5 *11:19 0.026955
6 *11:18 0.0295903
7 *11:13 0.0555113
8 *11:11 0.0531002
9 *11:18 *73:14 0
10 *11:22 *44:16 0.00435188
11 *11:22 *86:8 0.0527818
12 *11:22 *113:14 0.0826231
*RES
1 io_in[19] *11:11 2.475 
2 *11:11 *11:13 527.67 
3 *11:13 *11:18 37.53 
4 *11:18 *11:19 263.79 
5 *11:19 *11:21 4.5 
6 *11:21 *11:22 138.51 
7 *11:22 *419:io_in[19] 9.405 
*END

*D_NET *12 0.621576
*CONN
*P io_in[1] I
*I *419:io_in[1] I *D tiny_user_project
*CAP
1 io_in[1] 0.00441475
2 *419:io_in[1] 0.00102722
3 *12:19 0.0447911
4 *12:18 0.0437638
5 *12:16 0.0338482
6 *12:15 0.0338482
7 *12:13 0.00441475
8 *12:16 la_data_out[62] 0
9 *12:16 *301:9 0
10 *12:19 *50:11 0
11 *12:19 *64:13 0.000323283
12 *12:19 *64:15 0
13 *12:19 *133:16 0
14 *12:19 *133:27 0
15 *12:19 *225:14 0.455145
16 *12:19 *387:11 0
*RES
1 io_in[1] *12:13 47.025 
2 *12:13 *12:15 4.5 
3 *12:15 *12:16 337.59 
4 *12:16 *12:18 4.5 
5 *12:18 *12:19 762.75 
6 *12:19 *419:io_in[1] 22.9774 
*END

*D_NET *13 0.13264
*CONN
*P io_in[20] I
*I *419:io_in[20] I *D tiny_user_project
*CAP
1 io_in[20] 0.00433039
2 *419:io_in[20] 0.00387444
3 *13:12 0.0134214
4 *13:11 0.00954691
5 *13:9 0.0485681
6 *13:7 0.0528984
7 *13:12 *73:14 0
*RES
1 io_in[20] *13:7 43.245 
2 *13:7 *13:9 484.74 
3 *13:9 *13:11 4.5 
4 *13:11 *13:12 102.69 
5 *13:12 *419:io_in[20] 48.5374 
*END

*D_NET *14 0.401024
*CONN
*P io_in[21] I
*I *419:io_in[21] I *D tiny_user_project
*CAP
1 io_in[21] 0.000708774
2 *419:io_in[21] 0.00010492
3 *14:14 0.00102485
4 *14:13 0.000919929
5 *14:11 0.0691672
6 *14:10 0.0691672
7 *14:8 0.00283192
8 *14:7 0.00354069
9 *419:io_in[21] *419:la_data_in[36] 0.000337567
10 *14:8 *16:8 0.0333852
11 *14:11 *368:11 0.155096
12 *14:14 *47:8 0.0161848
13 *14:14 *109:8 0.0485546
*RES
1 io_in[21] *14:7 10.845 
2 *14:7 *14:8 52.47 
3 *14:8 *14:10 4.5 
4 *14:10 *14:11 781.65 
5 *14:11 *14:13 4.5 
6 *14:13 *14:14 70.29 
7 *14:14 *419:io_in[21] 5.985 
*END

*D_NET *15 0.152495
*CONN
*P io_in[22] I
*I *419:io_in[22] I *D tiny_user_project
*CAP
1 io_in[22] 0.000290594
2 *419:io_in[22] 0.00336417
3 *15:18 0.00336417
4 *15:16 0.0145897
5 *15:15 0.0145897
6 *15:13 0.0506798
7 *15:11 0.0509704
8 *419:io_in[22] *16:11 0.00270667
9 *419:io_in[22] *52:11 0.00147302
10 *419:io_in[22] *70:17 0.00727302
11 *419:io_in[22] *357:23 0.00142392
12 *419:io_in[22] *387:14 0.00176967
13 *15:16 *36:13 0
*RES
1 io_in[22] *15:11 3.015 
2 *15:11 *15:13 506.07 
3 *15:13 *15:15 4.5 
4 *15:15 *15:16 158.85 
5 *15:16 *15:18 4.5 
6 *15:18 *419:io_in[22] 56.385 
*END

*D_NET *16 0.342531
*CONN
*P io_in[23] I
*I *419:io_in[23] I *D tiny_user_project
*CAP
1 io_in[23] 0.000671366
2 *419:io_in[23] 0.000468113
3 *16:19 0.00182483
4 *16:11 0.0553559
5 *16:10 0.0539992
6 *16:8 0.0153578
7 *16:7 0.0160292
8 *16:8 *90:16 0.11259
9 *16:11 *419:la_oenb[2] 0
10 *16:11 *357:23 4.09172e-05
11 *16:11 *399:14 0.0136868
12 *16:19 *235:11 0.00317066
13 *16:19 *257:12 0.00317066
14 *16:19 *368:11 0.0211746
15 *16:19 *384:8 0.00889948
16 *419:io_in[22] *16:11 0.00270667
17 *14:8 *16:8 0.0333852
*RES
1 io_in[23] *16:7 11.025 
2 *16:7 *16:8 262.17 
3 *16:8 *16:10 4.5 
4 *16:10 *16:11 555.03 
5 *16:11 *16:19 49.14 
6 *16:19 *419:io_in[23] 3.825 
*END

*D_NET *17 0.492727
*CONN
*P io_in[24] I
*I *419:io_in[24] I *D tiny_user_project
*CAP
1 io_in[24] 0.00382718
2 *419:io_in[24] 0.00122863
3 *17:11 0.00643805
4 *17:10 0.00520942
5 *17:8 0.0787619
6 *17:7 0.0825891
7 *419:io_in[24] *369:19 0.00509418
8 *17:11 *26:19 0.187566
9 *17:11 *95:14 0.109356
10 *17:11 *357:12 0.0126563
*RES
1 io_in[24] *17:7 45.765 
2 *17:7 *17:8 786.33 
3 *17:8 *17:10 4.5 
4 *17:10 *17:11 271.53 
5 *17:11 *419:io_in[24] 18.675 
*END

*D_NET *18 0.271015
*CONN
*P io_in[25] I
*I *419:io_in[25] I *D tiny_user_project
*CAP
1 io_in[25] 0.000611329
2 *419:io_in[25] 0.000390366
3 *18:17 0.00711455
4 *18:16 0.00672418
5 *18:14 0.014076
6 *18:13 0.0151448
7 *18:8 0.0569257
8 *18:7 0.0564682
9 *419:io_in[25] *250:17 0.000644445
10 *18:8 io_out[28] 0.000347796
11 *18:8 io_out[32] 0.0166328
12 *18:17 *419:wbs_dat_i[4] 0.00242462
13 *18:17 *96:8 0.0864775
14 *18:17 *105:14 0.00373018
15 *18:17 *363:12 9.32547e-05
16 *18:17 *404:14 0.00320946
*RES
1 io_in[25] *18:7 10.665 
2 *18:7 *18:8 569.25 
3 *18:8 *18:13 19.89 
4 *18:13 *18:14 140.31 
5 *18:14 *18:16 4.5 
6 *18:16 *18:17 141.39 
7 *18:17 *419:io_in[25] 9.225 
*END

*D_NET *19 0.162801
*CONN
*P io_in[26] I
*I *419:io_in[26] I *D tiny_user_project
*CAP
1 io_in[26] 0.00010158
2 *419:io_in[26] 5.64407e-05
3 *19:19 0.00605273
4 *19:18 0.00599629
5 *19:16 0.0412886
6 *19:15 0.0412886
7 *19:13 0.00636904
8 *19:11 0.00647062
9 *19:16 *101:11 0.0551768
*RES
1 io_in[26] *19:11 1.215 
2 *19:11 *19:13 68.31 
3 *19:13 *19:15 4.5 
4 *19:15 *19:16 448.11 
5 *19:16 *19:18 4.5 
6 *19:18 *19:19 59.67 
7 *19:19 *419:io_in[26] 9.63 
*END

*D_NET *20 0.108654
*CONN
*P io_in[27] I
*I *419:io_in[27] I *D tiny_user_project
*CAP
1 io_in[27] 0.00165081
2 *419:io_in[27] 0.000129437
3 *20:11 0.0110796
4 *20:10 0.0109501
5 *20:8 0.0415965
6 *20:7 0.0432473
*RES
1 io_in[27] *20:7 21.465 
2 *20:7 *20:8 415.35 
3 *20:8 *20:10 4.5 
4 *20:10 *20:11 110.97 
5 *20:11 *419:io_in[27] 10.44 
*END

*D_NET *21 0.0905577
*CONN
*P io_in[28] I
*I *419:io_in[28] I *D tiny_user_project
*CAP
1 io_in[28] 0.00113819
2 *419:io_in[28] 0.000129437
3 *21:11 0.0115637
4 *21:10 0.0114343
5 *21:8 0.0325769
6 *21:7 0.0337151
*RES
1 io_in[28] *21:7 16.065 
2 *21:7 *21:8 325.17 
3 *21:8 *21:10 4.5 
4 *21:10 *21:11 116.37 
5 *21:11 *419:io_in[28] 10.44 
*END

*D_NET *22 0.111199
*CONN
*P io_in[29] I
*I *419:io_in[29] I *D tiny_user_project
*CAP
1 io_in[29] 0.00698077
2 *419:io_in[29] 0.000178101
3 *22:11 0.00571292
4 *22:10 0.00553482
5 *22:8 0.0272242
6 *22:7 0.0272242
7 *22:5 0.00698077
8 *22:8 *417:19 0.031363
*RES
1 io_in[29] *22:5 73.665 
2 *22:5 *22:7 4.5 
3 *22:7 *22:8 291.69 
4 *22:8 *22:10 4.5 
5 *22:10 *22:11 54.27 
6 *22:11 *419:io_in[29] 10.98 
*END

*D_NET *23 0.233928
*CONN
*P io_in[2] I
*I *419:io_in[2] I *D tiny_user_project
*CAP
1 io_in[2] 0.000239227
2 *419:io_in[2] 0.0568326
3 *23:10 0.0568326
4 *23:8 0.0164282
5 *23:7 0.0166674
6 *23:8 *40:8 0.05309
7 *23:8 *44:19 0.0338385
*RES
1 io_in[2] *23:7 6.525 
2 *23:7 *23:8 259.83 
3 *23:8 *23:10 4.5 
4 *23:10 *419:io_in[2] 608.625 
*END

*D_NET *24 0.258604
*CONN
*P io_in[30] I
*I *419:io_in[30] I *D tiny_user_project
*CAP
1 io_in[30] 0.000237175
2 *419:io_in[30] 0.000864404
3 *24:19 0.00978031
4 *24:18 0.00891591
5 *24:16 0.0318179
6 *24:15 0.0318179
7 *24:13 0.00846828
8 *24:11 0.00870545
9 *24:16 *92:15 0.0266984
10 *24:16 *140:19 0.00686334
11 *24:16 *220:13 0.00124593
12 *24:16 *411:14 0
13 *24:19 *419:la_data_in[38] 0.000121231
14 *24:19 *419:la_data_in[5] 0.000139882
15 *24:19 *419:la_oenb[36] 0.000230805
16 *24:19 *419:la_oenb[38] 0.000498653
17 *24:19 *419:wbs_adr_i[12] 0.00835125
18 *24:19 *419:wbs_adr_i[16] 0.000276656
19 *24:19 *419:wbs_adr_i[21] 0.000509791
20 *24:19 *419:wbs_adr_i[26] 0.000398922
21 *24:19 *419:wbs_adr_i[2] 0.00012434
22 *24:19 *79:8 0.00155413
23 *24:19 *106:10 0.000295307
24 *24:19 *156:24 0
25 *24:19 *183:11 0.000770645
26 *24:19 *236:10 0.000139882
27 *24:19 *324:8 0.00166459
28 *24:19 *332:16 0.106869
29 *24:19 *363:12 0
30 *24:19 *369:22 0
31 *24:19 *387:17 0.00124339
*RES
1 io_in[30] *24:11 2.295 
2 *24:11 *24:13 89.91 
3 *24:13 *24:15 4.5 
4 *24:15 *24:16 367.65 
5 *24:16 *24:18 4.5 
6 *24:18 *24:19 185.13 
7 *24:19 *419:io_in[30] 11.925 
*END

*D_NET *25 0.0686309
*CONN
*P io_in[31] I
*I *419:io_in[31] I *D tiny_user_project
*CAP
1 io_in[31] 0.00201185
2 *419:io_in[31] 0.000221873
3 *25:19 0.0122219
4 *25:18 0.0120001
5 *25:16 0.0200086
6 *25:15 0.0220205
7 *419:io_in[13] *419:io_in[31] 0.000146099
*RES
1 io_in[31] *25:15 25.425 
2 *25:15 *25:16 199.89 
3 *25:16 *25:18 4.5 
4 *25:18 *25:19 108.27 
5 *25:19 *419:io_in[31] 11.52 
*END

*D_NET *26 0.35443
*CONN
*P io_in[32] I
*I *419:io_in[32] I *D tiny_user_project
*CAP
1 io_in[32] 0.00251573
2 *419:io_in[32] 0.00140764
3 *26:19 0.0131936
4 *26:18 0.011786
5 *26:16 0.0235902
6 *26:15 0.0261059
7 *419:io_in[32] *294:24 0
8 *419:io_in[32] *403:14 0
9 *26:16 *314:5 0
10 *26:19 *46:10 0.0877215
11 *26:19 *357:12 0.000543952
12 *26:19 *393:16 0
13 *17:11 *26:19 0.187566
*RES
1 io_in[32] *26:15 29.745 
2 *26:15 *26:16 235.35 
3 *26:16 *26:18 4.5 
4 *26:18 *26:19 295.83 
5 *26:19 *419:io_in[32] 17.325 
*END

*D_NET *27 0.0529102
*CONN
*P io_in[33] I
*I *419:io_in[33] I *D tiny_user_project
*CAP
1 io_in[33] 0.00115242
2 *419:io_in[33] 0.000127099
3 *27:11 0.0119372
4 *27:10 0.0118101
5 *27:8 0.0133655
6 *27:7 0.0145179
7 *419:io_in[33] *419:wbs_adr_i[14] 0
8 *27:11 *419:wbs_adr_i[14] 0
*RES
1 io_in[33] *27:7 16.065 
2 *27:7 *27:8 133.47 
3 *27:8 *27:10 4.5 
4 *27:10 *27:11 116.37 
5 *27:11 *419:io_in[33] 10.44 
*END

*D_NET *28 0.0733537
*CONN
*P io_in[34] I
*I *419:io_in[34] I *D tiny_user_project
*CAP
1 io_in[34] 0.00268641
2 *419:io_in[34] 0.000269923
3 *28:11 0.00823956
4 *28:10 0.00796964
5 *28:8 0.011099
6 *28:7 0.0137855
7 *419:io_in[34] *419:la_data_in[27] 0.000146099
8 *28:7 *103:16 0
9 *28:8 *348:13 0
10 *28:11 *143:14 0.0291575
*RES
1 io_in[34] *28:7 32.265 
2 *28:7 *28:8 110.79 
3 *28:8 *28:10 4.5 
4 *28:10 *28:11 99.99 
5 *28:11 *419:io_in[34] 12.24 
*END

*D_NET *29 0.327234
*CONN
*P io_in[35] I
*I *419:io_in[35] I *D tiny_user_project
*CAP
1 io_in[35] 0.000237175
2 *419:io_in[35] 0.00018955
3 *29:19 0.00505233
4 *29:18 0.00486278
5 *29:16 0.020899
6 *29:15 0.020899
7 *29:13 0.00522451
8 *29:11 0.00546168
9 *29:16 *92:19 0
10 *29:19 *102:17 0.00972174
11 *29:19 *126:14 0.103014
12 *29:19 *147:14 0.0537762
13 *29:19 *314:8 0.0790174
14 *29:19 *316:16 0.0188787
*RES
1 io_in[35] *29:11 2.295 
2 *29:11 *29:13 54.81 
3 *29:13 *29:15 4.5 
4 *29:15 *29:16 208.35 
5 *29:16 *29:18 4.5 
6 *29:18 *29:19 274.23 
7 *29:19 *419:io_in[35] 15.2374 
*END

*D_NET *30 0.256765
*CONN
*P io_in[36] I
*I *419:io_in[36] I *D tiny_user_project
*CAP
1 io_in[36] 0.00010158
2 *419:io_in[36] 0.00230566
3 *30:16 0.0170048
4 *30:15 0.0146991
5 *30:13 0.0367733
6 *30:11 0.0368749
7 *30:13 *213:10 0.0010289
8 *30:13 *236:14 0
9 *30:13 *258:14 0
10 *30:13 *315:11 0
11 *30:13 *355:16 0
12 *30:16 *347:19 0.0108021
13 *30:16 *402:14 0.137175
*RES
1 io_in[36] *30:11 1.215 
2 *30:11 *30:13 374.85 
3 *30:13 *30:15 4.5 
4 *30:15 *30:16 248.67 
5 *30:16 *419:io_in[36] 26.865 
*END

*D_NET *31 0.269107
*CONN
*P io_in[37] I
*I *419:io_in[37] I *D tiny_user_project
*CAP
1 io_in[37] 0.000310538
2 *419:io_in[37] 0.00177093
3 *31:16 0.0190693
4 *31:15 0.0172984
5 *31:13 0.0356614
6 *31:11 0.035972
7 *31:13 *173:16 0
8 *31:13 *272:16 0
9 *31:13 *326:16 0
10 *31:13 *407:10 0
11 *31:16 *243:15 0.139384
12 *31:16 *349:19 0.0196402
13 *8:19 *31:16 0
*RES
1 io_in[37] *31:11 2.835 
2 *31:11 *31:13 369.45 
3 *31:13 *31:15 4.5 
4 *31:15 *31:16 290.79 
5 *31:16 *419:io_in[37] 21.465 
*END

*D_NET *32 0.155743
*CONN
*P io_in[3] I
*I *419:io_in[3] I *D tiny_user_project
*CAP
1 io_in[3] 0.000145659
2 *419:io_in[3] 0.00403984
3 *32:16 0.0221803
4 *32:15 0.0181405
5 *32:13 0.0537364
6 *32:11 0.053882
7 *32:16 *67:8 0
8 *32:16 *234:8 0
9 *32:16 *265:11 0
10 *32:16 *336:19 0.0036181
11 *32:16 *364:19 0
*RES
1 io_in[3] *32:11 1.575 
2 *32:11 *32:13 570.87 
3 *32:13 *32:15 4.5 
4 *32:15 *32:16 194.67 
5 *32:16 *419:io_in[3] 44.325 
*END

*D_NET *33 0.119463
*CONN
*P io_in[4] I
*I *419:io_in[4] I *D tiny_user_project
*CAP
1 io_in[4] 0.00405678
2 *419:io_in[4] 0.00536865
3 *33:14 0.00603959
4 *33:9 0.0490481
5 *33:7 0.0524339